
 OpenBabel03232215123D

 34 37  0  0  0  0  0  0  0  0999 V2000
  -11.5910    2.5450   35.6120 C   0  0  0  0  0  0  0  0  0  0  0  0
  -10.9100    3.4550   34.8930 N   0  0  0  0  0  0  0  0  0  0  0  0
   -9.0580    2.0740   34.8010 C   0  0  0  0  0  0  0  0  0  0  0  0
   -9.6540    3.2120   34.4740 N   0  0  0  0  0  0  0  0  0  0  0  0
   -9.6700    1.1030   35.6000 C   0  0  0  0  0  3  0  0  0  0  0  0
  -10.9890    1.3030   35.9970 C   0  0  0  0  0  0  0  0  0  0  0  0
  -13.0070    2.9300   35.9530 C   0  0  0  0  0  0  0  0  0  0  0  0
  -13.5680    2.4690   36.9380 O   0  0  0  0  0  0  0  0  0  0  0  0
  -13.5780    3.8290   35.1580 N   0  0  0  0  0  0  0  0  0  0  0  0
  -14.8810    4.3900   35.4580 C   0  0  0  0  0  1  0  0  0  0  0  0
  -13.1250    4.1770   34.3200 H   0  0  0  0  0  0  0  0  0  0  0  0
  -11.7700    0.3290   36.6780 N   0  0  0  0  0  0  0  0  0  0  0  0
  -12.7670    0.4060   36.5110 H   0  0  0  0  0  0  0  0  0  0  0  0
  -11.4380   -0.7660   37.4920 C   0  0  0  0  0  0  0  0  0  0  0  0
  -12.3640   -1.1130   38.4900 C   0  0  0  0  0  0  0  0  0  0  0  0
  -12.2110   -2.3020   39.2180 C   0  0  0  0  0  0  0  0  0  0  0  0
  -11.1060   -3.1080   38.9660 C   0  0  0  0  0  3  0  0  0  0  0  0
  -10.1800   -2.7440   38.0100 C   0  0  0  0  0  3  0  0  0  0  0  0
  -10.3480   -1.6000   37.2540 C   0  0  0  0  0  3  0  0  0  0  0  0
  -13.4450   -0.2660   38.7040 O   0  0  0  0  0  0  0  0  0  0  0  0
  -13.2860    0.7420   39.7010 C   0  0  0  0  0  1  0  0  0  0  0  0
  -13.1770   -2.7450   40.2360 C   0  0  0  0  0  0  0  0  0  0  0  0
  -12.8390   -3.4690   41.2920 N   0  0  0  0  0  0  0  0  0  0  0  0
  -13.9990   -3.5250   41.9870 N   0  0  0  0  0  0  0  0  0  0  0  0
  -14.0440   -4.2430   43.2560 C   0  0  0  0  0  1  0  0  0  0  0  0
  -14.9530   -2.8550   41.3280 C   0  0  0  0  0  3  0  0  0  0  0  0
  -14.4840   -2.3680   40.2030 N   0  0  0  0  0  0  0  0  0  0  0  0
   -7.7970    1.9880   34.1890 N   0  0  0  0  0  0  0  0  0  0  0  0
   -6.7610    1.1690   34.4790 C   0  0  0  0  0  0  0  0  0  0  0  0
   -6.7770    0.3360   35.3820 O   0  0  0  0  0  0  0  0  0  0  0  0
   -7.6650    2.6450   33.4250 H   0  0  0  0  0  0  0  0  0  0  0  0
   -5.5430    1.3470   33.5770 C   0  0  0  0  0  3  0  0  0  0  0  0
   -5.1140    0.1770   32.7310 C   0  0  0  0  0  2  0  0  0  0  0  0
   -4.3100    0.5510   33.9110 C   0  0  0  0  0  2  0  0  0  0  0  0
  1  7  1  0  0  0  0
  1  6  1  0  0  0  0
  2  1  2  0  0  0  0
  3  5  1  0  0  0  0
  4  3  2  0  0  0  0
  4  2  1  0  0  0  0
  5  6  2  0  0  0  0
  6 12  1  0  0  0  0
  7  8  2  0  0  0  0
  9 10  1  0  0  0  0
  9  7  1  0  0  0  0
 11  9  1  0  0  0  0
 12 14  1  0  0  0  0
 13 12  1  0  0  0  0
 14 15  1  0  0  0  0
 15 20  1  0  0  0  0
 15 16  2  0  0  0  0
 16 22  1  0  0  0  0
 17 16  1  0  0  0  0
 18 17  2  0  0  0  0
 19 14  2  0  0  0  0
 19 18  1  0  0  0  0
 20 21  1  0  0  0  0
 22 23  2  0  0  0  0
 23 24  1  0  0  0  0
 24 25  1  0  0  0  0
 26 24  1  0  0  0  0
 27 22  1  0  0  0  0
 27 26  2  0  0  0  0
 28 29  1  0  0  0  0
 28  3  1  0  0  0  0
 29 30  2  0  0  0  0
 31 28  1  0  0  0  0
 32 34  1  0  0  0  0
 32 29  1  0  0  0  0
 33 32  1  0  0  0  0
 33 34  1  0  0  0  0
M  END
>  <minimizedAffinity>
-10.3476496

>  <CNNscore>
0.99803406

>  <CNNaffinity>
7.77330923

$$$$

 OpenBabel03232215123D

 34 37  0  0  0  0  0  0  0  0999 V2000
  -11.3600    1.8170   36.0120 C   0  0  0  0  0  0  0  0  0  0  0  0
  -10.4420    2.5190   35.3240 N   0  0  0  0  0  0  0  0  0  0  0  0
   -8.8530    0.8730   35.6620 C   0  0  0  0  0  0  0  0  0  0  0  0
   -9.1980    2.0400   35.1350 N   0  0  0  0  0  0  0  0  0  0  0  0
   -9.7260    0.1100   36.4450 C   0  0  0  0  0  3  0  0  0  0  0  0
  -11.0350    0.5540   36.6070 C   0  0  0  0  0  0  0  0  0  0  0  0
  -12.7250    2.4500   36.0860 C   0  0  0  0  0  0  0  0  0  0  0  0
  -13.4930    2.1920   37.0030 O   0  0  0  0  0  0  0  0  0  0  0  0
  -13.0150    3.3320   35.1350 N   0  0  0  0  0  0  0  0  0  0  0  0
  -14.2340    4.1160   35.1710 C   0  0  0  0  0  1  0  0  0  0  0  0
  -12.3920    3.5120   34.3540 H   0  0  0  0  0  0  0  0  0  0  0  0
  -12.0560   -0.2000   37.2480 N   0  0  0  0  0  0  0  0  0  0  0  0
  -12.9960    0.0330   36.9460 H   0  0  0  0  0  0  0  0  0  0  0  0
  -12.0280   -1.2540   38.1750 C   0  0  0  0  0  0  0  0  0  0  0  0
  -13.0420   -1.2640   39.1480 C   0  0  0  0  0  0  0  0  0  0  0  0
  -13.2080   -2.3750   39.9880 C   0  0  0  0  0  0  0  0  0  0  0  0
  -12.3270   -3.4450   39.8720 C   0  0  0  0  0  3  0  0  0  0  0  0
  -11.3110   -3.4140   38.9400 C   0  0  0  0  0  3  0  0  0  0  0  0
  -11.1700   -2.3470   38.0740 C   0  0  0  0  0  3  0  0  0  0  0  0
  -13.8880   -0.1640   39.2240 O   0  0  0  0  0  0  0  0  0  0  0  0
  -13.4720    0.9120   40.0640 C   0  0  0  0  0  1  0  0  0  0  0  0
  -14.2840   -2.4660   40.9880 C   0  0  0  0  0  0  0  0  0  0  0  0
  -15.5370   -2.1150   40.7410 N   0  0  0  0  0  0  0  0  0  0  0  0
  -16.1690   -2.4800   41.8800 N   0  0  0  0  0  0  0  0  0  0  0  0
  -17.6070   -2.2660   42.0060 C   0  0  0  0  0  1  0  0  0  0  0  0
  -15.2870   -3.0130   42.7360 C   0  0  0  0  0  3  0  0  0  0  0  0
  -14.0790   -3.0010   42.2230 N   0  0  0  0  0  0  0  0  0  0  0  0
   -7.5520    0.5240   35.2680 N   0  0  0  0  0  0  0  0  0  0  0  0
   -6.7900   -0.5190   35.6670 C   0  0  0  0  0  0  0  0  0  0  0  0
   -7.1520   -1.3580   36.4880 O   0  0  0  0  0  0  0  0  0  0  0  0
   -7.1420    1.1600   34.5900 H   0  0  0  0  0  0  0  0  0  0  0  0
   -5.4180   -0.5920   35.0010 C   0  0  0  0  0  3  0  0  0  0  0  0
   -4.3130    0.2590   35.5670 C   0  0  0  0  0  2  0  0  0  0  0  0
   -4.9310    0.6360   34.2810 C   0  0  0  0  0  2  0  0  0  0  0  0
  1  7  1  0  0  0  0
  1  6  1  0  0  0  0
  2  1  2  0  0  0  0
  3  5  1  0  0  0  0
  4  2  1  0  0  0  0
  4  3  2  0  0  0  0
  5  6  2  0  0  0  0
  6 12  1  0  0  0  0
  7  8  2  0  0  0  0
  9 10  1  0  0  0  0
  9  7  1  0  0  0  0
 11  9  1  0  0  0  0
 12 14  1  0  0  0  0
 13 12  1  0  0  0  0
 14 15  1  0  0  0  0
 15 20  1  0  0  0  0
 15 16  2  0  0  0  0
 16 22  1  0  0  0  0
 17 16  1  0  0  0  0
 18 17  2  0  0  0  0
 19 14  2  0  0  0  0
 19 18  1  0  0  0  0
 20 21  1  0  0  0  0
 22 27  1  0  0  0  0
 23 22  2  0  0  0  0
 23 24  1  0  0  0  0
 24 25  1  0  0  0  0
 24 26  1  0  0  0  0
 27 26  2  0  0  0  0
 28  3  1  0  0  0  0
 28 29  1  0  0  0  0
 29 30  2  0  0  0  0
 31 28  1  0  0  0  0
 32 33  1  0  0  0  0
 32 29  1  0  0  0  0
 34 32  1  0  0  0  0
 34 33  1  0  0  0  0
M  END
>  <minimizedAffinity>
-9.29369164

>  <CNNscore>
0.95958209

>  <CNNaffinity>
7.43466854

$$$$

 OpenBabel03232215123D

 34 37  0  0  0  0  0  0  0  0999 V2000
   -9.7800    2.1620   35.1580 C   0  0  0  0  0  0  0  0  0  0  0  0
   -8.8780    2.4470   34.2020 N   0  0  0  0  0  0  0  0  0  0  0  0
   -7.5270    0.6980   34.8810 C   0  0  0  0  0  0  0  0  0  0  0  0
   -7.7640    1.7060   34.0540 N   0  0  0  0  0  0  0  0  0  0  0  0
   -8.3790    0.3740   35.9410 C   0  0  0  0  0  3  0  0  0  0  0  0
   -9.5670    1.0870   36.0810 C   0  0  0  0  0  0  0  0  0  0  0  0
  -11.0060    3.0380   35.1610 C   0  0  0  0  0  0  0  0  0  0  0  0
  -10.9540    4.1990   34.7790 O   0  0  0  0  0  0  0  0  0  0  0  0
  -12.1380    2.4610   35.5510 N   0  0  0  0  0  0  0  0  0  0  0  0
  -13.4110    3.1500   35.4640 C   0  0  0  0  0  1  0  0  0  0  0  0
  -12.1680    1.5110   35.9070 H   0  0  0  0  0  0  0  0  0  0  0  0
  -10.5850    0.7590   37.0180 N   0  0  0  0  0  0  0  0  0  0  0  0
  -11.2470    1.5060   37.1910 H   0  0  0  0  0  0  0  0  0  0  0  0
  -10.9020   -0.4200   37.7140 C   0  0  0  0  0  0  0  0  0  0  0  0
  -12.1490   -0.4530   38.3610 C   0  0  0  0  0  0  0  0  0  0  0  0
  -12.6300   -1.6500   38.9120 C   0  0  0  0  0  0  0  0  0  0  0  0
  -11.8360   -2.7890   38.8440 C   0  0  0  0  0  3  0  0  0  0  0  0
  -10.5980   -2.7420   38.2390 C   0  0  0  0  0  3  0  0  0  0  0  0
  -10.1360   -1.5810   37.6500 C   0  0  0  0  0  3  0  0  0  0  0  0
  -12.8950    0.7180   38.4060 O   0  0  0  0  0  0  0  0  0  0  0  0
  -12.8620    1.4590   39.6250 C   0  0  0  0  0  1  0  0  0  0  0  0
  -13.9500   -1.7590   39.5530 C   0  0  0  0  0  0  0  0  0  0  0  0
  -14.1170   -2.1180   40.8160 N   0  0  0  0  0  0  0  0  0  0  0  0
  -15.4500   -1.9600   40.9890 N   0  0  0  0  0  0  0  0  0  0  0  0
  -16.0470   -2.2500   42.2880 C   0  0  0  0  0  1  0  0  0  0  0  0
  -16.0050   -1.5300   39.8480 C   0  0  0  0  0  3  0  0  0  0  0  0
  -15.0980   -1.4140   38.9060 N   0  0  0  0  0  0  0  0  0  0  0  0
   -6.3670    0.0090   34.4920 N   0  0  0  0  0  0  0  0  0  0  0  0
   -5.0760    0.4050   34.5630 C   0  0  0  0  0  0  0  0  0  0  0  0
   -4.7150    1.4940   35.0000 O   0  0  0  0  0  0  0  0  0  0  0  0
   -6.5460   -0.9120   34.1020 H   0  0  0  0  0  0  0  0  0  0  0  0
   -4.0700   -0.6280   34.0610 C   0  0  0  0  0  3  0  0  0  0  0  0
   -3.1100   -0.2100   32.9790 C   0  0  0  0  0  2  0  0  0  0  0  0
   -4.2250   -1.1170   32.6460 C   0  0  0  0  0  2  0  0  0  0  0  0
  1  7  1  0  0  0  0
  1  6  1  0  0  0  0
  2  1  2  0  0  0  0
  3  5  1  0  0  0  0
  4  2  1  0  0  0  0
  4  3  2  0  0  0  0
  5  6  2  0  0  0  0
  6 12  1  0  0  0  0
  7  9  1  0  0  0  0
  8  7  2  0  0  0  0
  9 11  1  0  0  0  0
 10  9  1  0  0  0  0
 12 13  1  0  0  0  0
 12 14  1  0  0  0  0
 14 15  1  0  0  0  0
 15 20  1  0  0  0  0
 15 16  2  0  0  0  0
 16 22  1  0  0  0  0
 17 16  1  0  0  0  0
 18 17  2  0  0  0  0
 19 14  2  0  0  0  0
 19 18  1  0  0  0  0
 20 21  1  0  0  0  0
 22 23  2  0  0  0  0
 23 24  1  0  0  0  0
 24 25  1  0  0  0  0
 26 24  1  0  0  0  0
 27 22  1  0  0  0  0
 27 26  2  0  0  0  0
 28 29  1  0  0  0  0
 28  3  1  0  0  0  0
 29 30  2  0  0  0  0
 31 28  1  0  0  0  0
 32 29  1  0  0  0  0
 33 32  1  0  0  0  0
 34 33  1  0  0  0  0
 34 32  1  0  0  0  0
M  END
>  <minimizedAffinity>
-9.2620306

>  <CNNscore>
0.893810689

>  <CNNaffinity>
7.24885035

$$$$

 OpenBabel03232215123D

 34 37  0  0  0  0  0  0  0  0999 V2000
   -9.5590    1.8130   35.3260 C   0  0  0  0  0  0  0  0  0  0  0  0
   -8.4610    2.1780   34.6390 N   0  0  0  0  0  0  0  0  0  0  0  0
   -7.3450    0.2640   35.3010 C   0  0  0  0  0  0  0  0  0  0  0  0
   -7.3650    1.3970   34.6130 N   0  0  0  0  0  0  0  0  0  0  0  0
   -8.4180   -0.1580   36.0930 C   0  0  0  0  0  3  0  0  0  0  0  0
   -9.5850    0.6010   36.0910 C   0  0  0  0  0  0  0  0  0  0  0  0
  -10.7280    2.7550   35.2110 C   0  0  0  0  0  0  0  0  0  0  0  0
  -10.5930    3.8730   34.7310 O   0  0  0  0  0  0  0  0  0  0  0  0
  -11.9040    2.2830   35.6090 N   0  0  0  0  0  0  0  0  0  0  0  0
  -13.1300    3.0340   35.4180 C   0  0  0  0  0  1  0  0  0  0  0  0
  -12.0030    1.3720   36.0440 H   0  0  0  0  0  0  0  0  0  0  0  0
  -10.7920    0.2040   36.7290 N   0  0  0  0  0  0  0  0  0  0  0  0
  -11.6120    0.7140   36.4200 H   0  0  0  0  0  0  0  0  0  0  0  0
  -11.0960   -0.8010   37.6620 C   0  0  0  0  0  0  0  0  0  0  0  0
  -12.3290   -0.6920   38.3260 C   0  0  0  0  0  0  0  0  0  0  0  0
  -12.8000   -1.7450   39.1250 C   0  0  0  0  0  0  0  0  0  0  0  0
  -12.0090   -2.8770   39.2810 C   0  0  0  0  0  3  0  0  0  0  0  0
  -10.7830   -2.9640   38.6560 C   0  0  0  0  0  3  0  0  0  0  0  0
  -10.3320   -1.9540   37.8280 C   0  0  0  0  0  3  0  0  0  0  0  0
  -13.0730    0.4660   38.1400 O   0  0  0  0  0  0  0  0  0  0  0  0
  -12.9430    1.4840   39.1320 C   0  0  0  0  0  1  0  0  0  0  0  0
  -14.1070   -1.7100   39.8010 C   0  0  0  0  0  0  0  0  0  0  0  0
  -15.2360   -1.3960   39.1850 N   0  0  0  0  0  0  0  0  0  0  0  0
  -16.1610   -1.6150   40.1480 N   0  0  0  0  0  0  0  0  0  0  0  0
  -17.5730   -1.3900   39.8550 C   0  0  0  0  0  1  0  0  0  0  0  0
  -15.5570   -2.0330   41.2680 C   0  0  0  0  0  3  0  0  0  0  0  0
  -14.2560   -2.0830   41.1020 N   0  0  0  0  0  0  0  0  0  0  0  0
   -6.1510   -0.4330   35.0600 N   0  0  0  0  0  0  0  0  0  0  0  0
   -5.0080   -0.4430   35.7840 C   0  0  0  0  0  0  0  0  0  0  0  0
   -4.8440    0.2030   36.8160 O   0  0  0  0  0  0  0  0  0  0  0  0
   -6.1670   -1.0000   34.2170 H   0  0  0  0  0  0  0  0  0  0  0  0
   -3.9120   -1.3450   35.2230 C   0  0  0  0  0  3  0  0  0  0  0  0
   -2.9770   -0.7640   34.1960 C   0  0  0  0  0  2  0  0  0  0  0  0
   -4.0070   -1.7320   33.7710 C   0  0  0  0  0  2  0  0  0  0  0  0
  1  6  1  0  0  0  0
  2  1  2  0  0  0  0
  3  5  1  0  0  0  0
  4  2  1  0  0  0  0
  4  3  2  0  0  0  0
  6  5  2  0  0  0  0
  6 12  1  0  0  0  0
  7  1  1  0  0  0  0
  7  9  1  0  0  0  0
  8  7  2  0  0  0  0
  9 11  1  0  0  0  0
 10  9  1  0  0  0  0
 12 14  1  0  0  0  0
 13 12  1  0  0  0  0
 14 19  2  0  0  0  0
 14 15  1  0  0  0  0
 15 16  2  0  0  0  0
 16 17  1  0  0  0  0
 16 22  1  0  0  0  0
 18 17  2  0  0  0  0
 19 18  1  0  0  0  0
 20 15  1  0  0  0  0
 20 21  1  0  0  0  0
 22 27  1  0  0  0  0
 23 22  2  0  0  0  0
 23 24  1  0  0  0  0
 24 26  1  0  0  0  0
 25 24  1  0  0  0  0
 27 26  2  0  0  0  0
 28  3  1  0  0  0  0
 28 29  1  0  0  0  0
 29 30  2  0  0  0  0
 31 28  1  0  0  0  0
 32 29  1  0  0  0  0
 33 32  1  0  0  0  0
 34 33  1  0  0  0  0
 34 32  1  0  0  0  0
M  END
>  <minimizedAffinity>
-9.22238827

>  <CNNscore>
0.89095819

>  <CNNaffinity>
7.18933725

$$$$

 OpenBabel03232215123D

 34 37  0  0  0  0  0  0  0  0999 V2000
  -12.4440   -3.0470   39.9930 C   0  0  0  0  0  0  0  0  0  0  0  0
  -12.3270   -4.2850   40.5070 N   0  0  0  0  0  0  0  0  0  0  0  0
  -10.1030   -4.3920   39.8840 C   0  0  0  0  0  0  0  0  0  0  0  0
  -11.1560   -4.9470   40.4680 N   0  0  0  0  0  0  0  0  0  0  0  0
  -10.1550   -3.1380   39.2670 C   0  0  0  0  0  3  0  0  0  0  0  0
  -11.3370   -2.4070   39.3450 C   0  0  0  0  0  0  0  0  0  0  0  0
  -13.7960   -2.4070   40.1670 C   0  0  0  0  0  0  0  0  0  0  0  0
  -14.3290   -1.7950   39.2510 O   0  0  0  0  0  0  0  0  0  0  0  0
  -14.3850   -2.5920   41.3440 N   0  0  0  0  0  0  0  0  0  0  0  0
  -15.7450   -2.1530   41.5910 C   0  0  0  0  0  1  0  0  0  0  0  0
  -13.9220   -3.0640   42.1140 H   0  0  0  0  0  0  0  0  0  0  0  0
  -11.4720   -1.0650   38.8950 N   0  0  0  0  0  0  0  0  0  0  0  0
  -11.7670   -0.4130   39.6140 H   0  0  0  0  0  0  0  0  0  0  0  0
  -11.2190   -0.4370   37.6640 C   0  0  0  0  0  0  0  0  0  0  0  0
  -12.0880    0.6040   37.2970 C   0  0  0  0  0  0  0  0  0  0  0  0
  -11.7990    1.4110   36.1870 C   0  0  0  0  0  0  0  0  0  0  0  0
  -10.6650    1.1360   35.4320 C   0  0  0  0  0  3  0  0  0  0  0  0
   -9.8340    0.0900   35.7750 C   0  0  0  0  0  3  0  0  0  0  0  0
  -10.0830   -0.6790   36.8960 C   0  0  0  0  0  3  0  0  0  0  0  0
  -13.2120    0.8270   38.0840 O   0  0  0  0  0  0  0  0  0  0  0  0
  -12.9970    1.4270   39.3610 C   0  0  0  0  0  1  0  0  0  0  0  0
  -12.6420    2.5490   35.7870 C   0  0  0  0  0  0  0  0  0  0  0  0
  -13.8960    2.7000   36.1840 N   0  0  0  0  0  0  0  0  0  0  0  0
  -14.2140    3.9160   35.6820 N   0  0  0  0  0  0  0  0  0  0  0  0
  -15.5440    4.4670   35.9180 C   0  0  0  0  0  1  0  0  0  0  0  0
  -13.1640    4.4200   35.0200 C   0  0  0  0  0  3  0  0  0  0  0  0
  -12.1570    3.5780   35.0380 N   0  0  0  0  0  0  0  0  0  0  0  0
   -8.9720   -5.2090   40.0370 N   0  0  0  0  0  0  0  0  0  0  0  0
   -7.7420   -4.8860   40.4960 C   0  0  0  0  0  0  0  0  0  0  0  0
   -7.4200   -3.7580   40.8600 O   0  0  0  0  0  0  0  0  0  0  0  0
   -9.1200   -6.1740   39.7540 H   0  0  0  0  0  0  0  0  0  0  0  0
   -6.7580   -6.0520   40.5430 C   0  0  0  0  0  3  0  0  0  0  0  0
   -6.6590   -6.8420   41.8210 C   0  0  0  0  0  2  0  0  0  0  0  0
   -5.5670   -5.9190   41.4530 C   0  0  0  0  0  2  0  0  0  0  0  0
  1  7  1  0  0  0  0
  1  2  1  0  0  0  0
  3 28  1  0  0  0  0
  3  4  1  0  0  0  0
  4  2  2  0  0  0  0
  5  6  1  0  0  0  0
  5  3  2  0  0  0  0
  6  1  2  0  0  0  0
  7  9  1  0  0  0  0
  8  7  2  0  0  0  0
  9 10  1  0  0  0  0
  9 11  1  0  0  0  0
 12  6  1  0  0  0  0
 12 13  1  0  0  0  0
 14 12  1  0  0  0  0
 15 14  1  0  0  0  0
 15 20  1  0  0  0  0
 16 15  2  0  0  0  0
 17 18  2  0  0  0  0
 17 16  1  0  0  0  0
 18 19  1  0  0  0  0
 19 14  2  0  0  0  0
 20 21  1  0  0  0  0
 22 23  2  0  0  0  0
 22 16  1  0  0  0  0
 24 25  1  0  0  0  0
 24 23  1  0  0  0  0
 26 27  2  0  0  0  0
 26 24  1  0  0  0  0
 27 22  1  0  0  0  0
 28 29  1  0  0  0  0
 29 32  1  0  0  0  0
 29 30  2  0  0  0  0
 31 28  1  0  0  0  0
 32 34  1  0  0  0  0
 32 33  1  0  0  0  0
 34 33  1  0  0  0  0
M  END
>  <minimizedAffinity>
-8.54759979

>  <CNNscore>
0.824694335

>  <CNNaffinity>
6.87337589

$$$$

 OpenBabel03232215123D

 34 37  0  0  0  0  0  0  0  0999 V2000
  -10.5130   -3.2290   39.2740 C   0  0  0  0  0  0  0  0  0  0  0  0
   -9.7700   -4.0390   40.0490 N   0  0  0  0  0  0  0  0  0  0  0  0
   -7.8140   -3.1500   39.1960 C   0  0  0  0  0  0  0  0  0  0  0  0
   -8.4250   -3.9870   40.0230 N   0  0  0  0  0  0  0  0  0  0  0  0
   -8.5080   -2.3200   38.3110 C   0  0  0  0  0  3  0  0  0  0  0  0
   -9.8990   -2.3120   38.3600 C   0  0  0  0  0  0  0  0  0  0  0  0
  -12.0020   -3.3570   39.4590 C   0  0  0  0  0  0  0  0  0  0  0  0
  -12.5810   -4.4070   39.2160 O   0  0  0  0  0  0  0  0  0  0  0  0
  -12.6270   -2.2890   39.9450 N   0  0  0  0  0  0  0  0  0  0  0  0
  -14.0320   -2.3270   40.3040 C   0  0  0  0  0  1  0  0  0  0  0  0
  -12.1500   -1.4080   40.1050 H   0  0  0  0  0  0  0  0  0  0  0  0
  -10.7150   -1.4090   37.6240 N   0  0  0  0  0  0  0  0  0  0  0  0
  -11.7060   -1.4880   37.8220 H   0  0  0  0  0  0  0  0  0  0  0  0
  -10.4230   -0.3760   36.7180 C   0  0  0  0  0  0  0  0  0  0  0  0
  -11.4400    0.5670   36.4890 C   0  0  0  0  0  0  0  0  0  0  0  0
  -11.1730    1.7330   35.7550 C   0  0  0  0  0  0  0  0  0  0  0  0
   -9.9020    1.9180   35.2240 C   0  0  0  0  0  3  0  0  0  0  0  0
   -8.9180    0.9710   35.4210 C   0  0  0  0  0  3  0  0  0  0  0  0
   -9.1560   -0.1560   36.1830 C   0  0  0  0  0  3  0  0  0  0  0  0
  -12.6930    0.3250   37.0370 O   0  0  0  0  0  0  0  0  0  0  0  0
  -12.9030    0.7560   38.3810 C   0  0  0  0  0  1  0  0  0  0  0  0
  -12.1810    2.7810   35.5290 C   0  0  0  0  0  0  0  0  0  0  0  0
  -13.4580    2.6420   35.8500 N   0  0  0  0  0  0  0  0  0  0  0  0
  -13.9590    3.8710   35.5810 N   0  0  0  0  0  0  0  0  0  0  0  0
  -15.3730    4.1400   35.8200 C   0  0  0  0  0  1  0  0  0  0  0  0
  -12.9840    4.6640   35.1180 C   0  0  0  0  0  3  0  0  0  0  0  0
  -11.8490    4.0090   35.0440 N   0  0  0  0  0  0  0  0  0  0  0  0
   -6.4250   -3.1930   39.3970 N   0  0  0  0  0  0  0  0  0  0  0  0
   -5.4470   -3.5260   38.5240 C   0  0  0  0  0  0  0  0  0  0  0  0
   -5.6510   -3.8650   37.3610 O   0  0  0  0  0  0  0  0  0  0  0  0
   -6.1360   -2.9370   40.3370 H   0  0  0  0  0  0  0  0  0  0  0  0
   -4.0330   -3.4370   39.0940 C   0  0  0  0  0  3  0  0  0  0  0  0
   -3.1240   -2.3610   38.5630 C   0  0  0  0  0  2  0  0  0  0  0  0
   -2.8910   -3.7650   38.1710 C   0  0  0  0  0  2  0  0  0  0  0  0
  1  7  1  0  0  0  0
  1  2  1  0  0  0  0
  3 28  1  0  0  0  0
  3  4  1  0  0  0  0
  4  2  2  0  0  0  0
  5  6  1  0  0  0  0
  5  3  2  0  0  0  0
  6  1  2  0  0  0  0
  7  9  1  0  0  0  0
  8  7  2  0  0  0  0
  9 11  1  0  0  0  0
  9 10  1  0  0  0  0
 12 13  1  0  0  0  0
 12  6  1  0  0  0  0
 14 12  1  0  0  0  0
 15 14  1  0  0  0  0
 15 20  1  0  0  0  0
 16 15  2  0  0  0  0
 17 18  2  0  0  0  0
 17 16  1  0  0  0  0
 18 19  1  0  0  0  0
 19 14  2  0  0  0  0
 20 21  1  0  0  0  0
 22 16  1  0  0  0  0
 22 23  2  0  0  0  0
 24 25  1  0  0  0  0
 24 23  1  0  0  0  0
 26 24  1  0  0  0  0
 27 26  2  0  0  0  0
 27 22  1  0  0  0  0
 28 31  1  0  0  0  0
 29 32  1  0  0  0  0
 29 28  1  0  0  0  0
 30 29  2  0  0  0  0
 33 32  1  0  0  0  0
 34 33  1  0  0  0  0
 34 32  1  0  0  0  0
M  END
>  <minimizedAffinity>
-7.90475512

>  <CNNscore>
0.767473817

>  <CNNaffinity>
6.93074942

$$$$

 OpenBabel03232215123D

 34 37  0  0  0  0  0  0  0  0999 V2000
  -10.2880   -3.6710   39.5110 C   0  0  0  0  0  0  0  0  0  0  0  0
   -9.4810   -4.4520   40.2520 N   0  0  0  0  0  0  0  0  0  0  0  0
   -7.6020   -3.3940   39.4170 C   0  0  0  0  0  0  0  0  0  0  0  0
   -8.1440   -4.3010   40.2180 N   0  0  0  0  0  0  0  0  0  0  0  0
   -8.3640   -2.5870   38.5660 C   0  0  0  0  0  3  0  0  0  0  0  0
   -9.7510   -2.6810   38.6250 C   0  0  0  0  0  0  0  0  0  0  0  0
  -11.7620   -3.9140   39.7020 C   0  0  0  0  0  0  0  0  0  0  0  0
  -12.4180   -4.5140   38.8610 O   0  0  0  0  0  0  0  0  0  0  0  0
  -12.2840   -3.4850   40.8460 N   0  0  0  0  0  0  0  0  0  0  0  0
  -13.6550   -3.7810   41.2150 C   0  0  0  0  0  1  0  0  0  0  0  0
  -11.7460   -2.9520   41.5210 H   0  0  0  0  0  0  0  0  0  0  0  0
  -10.6370   -1.8150   37.9270 N   0  0  0  0  0  0  0  0  0  0  0  0
  -10.8280   -2.0970   36.9720 H   0  0  0  0  0  0  0  0  0  0  0  0
  -11.3590   -0.6730   38.3100 C   0  0  0  0  0  0  0  0  0  0  0  0
  -11.6440    0.2610   37.3000 C   0  0  0  0  0  0  0  0  0  0  0  0
  -12.5210    1.3280   37.5470 C   0  0  0  0  0  0  0  0  0  0  0  0
  -13.0660    1.4700   38.8180 C   0  0  0  0  0  3  0  0  0  0  0  0
  -12.7540    0.5720   39.8160 C   0  0  0  0  0  3  0  0  0  0  0  0
  -11.9320   -0.5100   39.5690 C   0  0  0  0  0  3  0  0  0  0  0  0
  -11.0640    0.0730   36.0520 O   0  0  0  0  0  0  0  0  0  0  0  0
   -9.7080    0.4920   35.9010 C   0  0  0  0  0  1  0  0  0  0  0  0
  -12.9000    2.3050   36.5140 C   0  0  0  0  0  0  0  0  0  0  0  0
  -14.0210    3.0080   36.5550 N   0  0  0  0  0  0  0  0  0  0  0  0
  -13.8820    3.8370   35.4940 N   0  0  0  0  0  0  0  0  0  0  0  0
  -14.9300    4.8060   35.1950 C   0  0  0  0  0  1  0  0  0  0  0  0
  -12.7170    3.5930   34.8810 C   0  0  0  0  0  3  0  0  0  0  0  0
  -12.0750    2.6140   35.4750 N   0  0  0  0  0  0  0  0  0  0  0  0
   -6.2120   -3.3430   39.6060 N   0  0  0  0  0  0  0  0  0  0  0  0
   -5.2280   -3.8740   38.8460 C   0  0  0  0  0  0  0  0  0  0  0  0
   -5.4260   -4.5230   37.8230 O   0  0  0  0  0  0  0  0  0  0  0  0
   -5.9280   -2.8330   40.4380 H   0  0  0  0  0  0  0  0  0  0  0  0
   -3.8160   -3.5950   39.3550 C   0  0  0  0  0  3  0  0  0  0  0  0
   -2.8850   -2.8190   38.4630 C   0  0  0  0  0  2  0  0  0  0  0  0
   -2.6750   -4.2690   38.6410 C   0  0  0  0  0  2  0  0  0  0  0  0
  1  7  1  0  0  0  0
  1  2  1  0  0  0  0
  3 28  1  0  0  0  0
  3  4  1  0  0  0  0
  4  2  2  0  0  0  0
  5  6  1  0  0  0  0
  5  3  2  0  0  0  0
  6  1  2  0  0  0  0
  7  9  1  0  0  0  0
  8  7  2  0  0  0  0
  9 10  1  0  0  0  0
  9 11  1  0  0  0  0
 12 14  1  0  0  0  0
 12  6  1  0  0  0  0
 13 12  1  0  0  0  0
 14 19  1  0  0  0  0
 15 16  1  0  0  0  0
 15 14  2  0  0  0  0
 16 17  2  0  0  0  0
 17 18  1  0  0  0  0
 19 18  2  0  0  0  0
 20 15  1  0  0  0  0
 21 20  1  0  0  0  0
 22 23  2  0  0  0  0
 22 16  1  0  0  0  0
 24 23  1  0  0  0  0
 25 24  1  0  0  0  0
 26 27  2  0  0  0  0
 26 24  1  0  0  0  0
 27 22  1  0  0  0  0
 28 31  1  0  0  0  0
 29 32  1  0  0  0  0
 29 28  1  0  0  0  0
 30 29  2  0  0  0  0
 33 34  1  0  0  0  0
 33 32  1  0  0  0  0
 34 32  1  0  0  0  0
M  END
>  <minimizedAffinity>
-7.18389177

>  <CNNscore>
0.637660563

>  <CNNaffinity>
6.66752005

$$$$

 OpenBabel03232215123D

 34 37  0  0  0  0  0  0  0  0999 V2000
  -12.6380   -3.8340   40.3970 C   0  0  0  0  0  0  0  0  0  0  0  0
  -12.0880   -4.7380   41.2280 N   0  0  0  0  0  0  0  0  0  0  0  0
  -10.1190   -4.7320   40.0170 C   0  0  0  0  0  0  0  0  0  0  0  0
  -10.8270   -5.1720   41.0480 N   0  0  0  0  0  0  0  0  0  0  0  0
  -10.6350   -3.8420   39.0700 C   0  0  0  0  0  3  0  0  0  0  0  0
  -11.9160   -3.3330   39.2650 C   0  0  0  0  0  0  0  0  0  0  0  0
  -14.0320   -3.3960   40.7620 C   0  0  0  0  0  0  0  0  0  0  0  0
  -14.9060   -3.2960   39.9110 O   0  0  0  0  0  0  0  0  0  0  0  0
  -14.2610   -3.1800   42.0530 N   0  0  0  0  0  0  0  0  0  0  0  0
  -15.5920   -2.8950   42.5520 C   0  0  0  0  0  1  0  0  0  0  0  0
  -13.5240   -3.2230   42.7490 H   0  0  0  0  0  0  0  0  0  0  0  0
  -12.4960   -2.3110   38.4640 N   0  0  0  0  0  0  0  0  0  0  0  0
  -13.0780   -2.6560   37.7090 H   0  0  0  0  0  0  0  0  0  0  0  0
  -12.4790   -0.9090   38.5400 C   0  0  0  0  0  0  0  0  0  0  0  0
  -11.7810   -0.2310   37.5260 C   0  0  0  0  0  0  0  0  0  0  0  0
  -11.8740    1.1640   37.4130 C   0  0  0  0  0  0  0  0  0  0  0  0
  -12.6300    1.8660   38.3440 C   0  0  0  0  0  3  0  0  0  0  0  0
  -13.2830    1.1990   39.3590 C   0  0  0  0  0  3  0  0  0  0  0  0
  -13.2390   -0.1780   39.4500 C   0  0  0  0  0  3  0  0  0  0  0  0
  -11.0340   -0.9840   36.6290 O   0  0  0  0  0  0  0  0  0  0  0  0
   -9.6810   -1.2610   36.9880 C   0  0  0  0  0  1  0  0  0  0  0  0
  -11.2110    1.9230   36.3400 C   0  0  0  0  0  0  0  0  0  0  0  0
   -9.9620    1.7010   35.9580 N   0  0  0  0  0  0  0  0  0  0  0  0
   -9.8350    2.5270   34.8940 N   0  0  0  0  0  0  0  0  0  0  0  0
   -8.5730    2.5710   34.1630 C   0  0  0  0  0  1  0  0  0  0  0  0
  -10.9820    3.1910   34.6980 C   0  0  0  0  0  3  0  0  0  0  0  0
  -11.8710    2.8600   35.6050 N   0  0  0  0  0  0  0  0  0  0  0  0
   -8.8100   -5.2380   40.0720 N   0  0  0  0  0  0  0  0  0  0  0  0
   -7.6730   -4.6210   40.4670 C   0  0  0  0  0  0  0  0  0  0  0  0
   -7.6230   -3.4550   40.8520 O   0  0  0  0  0  0  0  0  0  0  0  0
   -8.7280   -6.2020   39.7650 H   0  0  0  0  0  0  0  0  0  0  0  0
   -6.4260   -5.4990   40.4130 C   0  0  0  0  0  3  0  0  0  0  0  0
   -5.7340   -5.8240   41.7100 C   0  0  0  0  0  2  0  0  0  0  0  0
   -5.1120   -4.8620   40.7780 C   0  0  0  0  0  2  0  0  0  0  0  0
  1  7  1  0  0  0  0
  1  2  1  0  0  0  0
  3 28  1  0  0  0  0
  3  4  1  0  0  0  0
  4  2  2  0  0  0  0
  5  6  1  0  0  0  0
  5  3  2  0  0  0  0
  6  1  2  0  0  0  0
  7  9  1  0  0  0  0
  8  7  2  0  0  0  0
  9 10  1  0  0  0  0
  9 11  1  0  0  0  0
 12 14  1  0  0  0  0
 12  6  1  0  0  0  0
 13 12  1  0  0  0  0
 14 19  1  0  0  0  0
 15 14  2  0  0  0  0
 16 15  1  0  0  0  0
 16 17  2  0  0  0  0
 17 18  1  0  0  0  0
 18 19  2  0  0  0  0
 20 21  1  0  0  0  0
 20 15  1  0  0  0  0
 22 16  1  0  0  0  0
 23 22  2  0  0  0  0
 24 23  1  0  0  0  0
 25 24  1  0  0  0  0
 26 24  1  0  0  0  0
 26 27  2  0  0  0  0
 27 22  1  0  0  0  0
 28 29  1  0  0  0  0
 29 30  2  0  0  0  0
 31 28  1  0  0  0  0
 32 29  1  0  0  0  0
 32 34  1  0  0  0  0
 32 33  1  0  0  0  0
 34 33  1  0  0  0  0
M  END
>  <minimizedAffinity>
-5.62728262

>  <CNNscore>
0.594621122

>  <CNNaffinity>
6.30217266

$$$$

 OpenBabel03232215123D

 34 37  0  0  0  0  0  0  0  0999 V2000
  -10.5320    0.9500   35.7490 C   0  0  0  0  0  0  0  0  0  0  0  0
   -9.6980    1.5210   34.8610 N   0  0  0  0  0  0  0  0  0  0  0  0
   -7.9330    0.2280   35.6080 C   0  0  0  0  0  0  0  0  0  0  0  0
   -8.4080    1.1480   34.7790 N   0  0  0  0  0  0  0  0  0  0  0  0
   -8.7140   -0.3680   36.6030 C   0  0  0  0  0  3  0  0  0  0  0  0
  -10.0660   -0.0430   36.6710 C   0  0  0  0  0  0  0  0  0  0  0  0
  -11.9600    1.4240   35.6800 C   0  0  0  0  0  0  0  0  0  0  0  0
  -12.8910    0.6560   35.8830 O   0  0  0  0  0  0  0  0  0  0  0  0
  -12.1390    2.7190   35.4390 N   0  0  0  0  0  0  0  0  0  0  0  0
  -13.4530    3.3280   35.4900 C   0  0  0  0  0  1  0  0  0  0  0  0
  -11.3660    3.3420   35.2310 H   0  0  0  0  0  0  0  0  0  0  0  0
  -10.9960   -0.6880   37.5320 N   0  0  0  0  0  0  0  0  0  0  0  0
  -10.9490   -1.7000   37.5110 H   0  0  0  0  0  0  0  0  0  0  0  0
  -11.9320   -0.2070   38.4630 C   0  0  0  0  0  0  0  0  0  0  0  0
  -12.7340   -1.1660   39.1030 C   0  0  0  0  0  0  0  0  0  0  0  0
  -13.5540   -0.8000   40.1800 C   0  0  0  0  0  0  0  0  0  0  0  0
  -13.5920    0.5330   40.5740 C   0  0  0  0  0  3  0  0  0  0  0  0
  -12.8300    1.4770   39.9190 C   0  0  0  0  0  3  0  0  0  0  0  0
  -11.9820    1.1180   38.8890 C   0  0  0  0  0  3  0  0  0  0  0  0
  -12.6610   -2.4810   38.6600 O   0  0  0  0  0  0  0  0  0  0  0  0
  -11.6460   -3.3010   39.2370 C   0  0  0  0  0  1  0  0  0  0  0  0
  -14.3750   -1.7690   40.9230 C   0  0  0  0  0  0  0  0  0  0  0  0
  -13.8850   -2.5730   41.8540 N   0  0  0  0  0  0  0  0  0  0  0  0
  -14.9990   -3.1750   42.3320 N   0  0  0  0  0  0  0  0  0  0  0  0
  -14.8830   -4.1520   43.4100 C   0  0  0  0  0  1  0  0  0  0  0  0
  -16.0740   -2.7190   41.6770 C   0  0  0  0  0  3  0  0  0  0  0  0
  -15.7240   -1.8480   40.7600 N   0  0  0  0  0  0  0  0  0  0  0  0
   -6.5990   -0.0740   35.2900 N   0  0  0  0  0  0  0  0  0  0  0  0
   -5.6500    0.7230   34.7470 C   0  0  0  0  0  0  0  0  0  0  0  0
   -5.8370    1.8940   34.4300 O   0  0  0  0  0  0  0  0  0  0  0  0
   -6.3310   -1.0300   35.5030 H   0  0  0  0  0  0  0  0  0  0  0  0
   -4.2920    0.0510   34.5620 C   0  0  0  0  0  3  0  0  0  0  0  0
   -3.7580   -0.0860   33.1610 C   0  0  0  0  0  2  0  0  0  0  0  0
   -4.2660   -1.2820   33.8630 C   0  0  0  0  0  2  0  0  0  0  0  0
  1  6  1  0  0  0  0
  2  1  2  0  0  0  0
  3  5  1  0  0  0  0
  4  2  1  0  0  0  0
  4  3  2  0  0  0  0
  5  6  2  0  0  0  0
  6 12  1  0  0  0  0
  7  1  1  0  0  0  0
  7  8  2  0  0  0  0
  9 10  1  0  0  0  0
  9  7  1  0  0  0  0
 11  9  1  0  0  0  0
 12 14  1  0  0  0  0
 13 12  1  0  0  0  0
 14 19  2  0  0  0  0
 14 15  1  0  0  0  0
 15 16  2  0  0  0  0
 16 17  1  0  0  0  0
 16 22  1  0  0  0  0
 18 17  2  0  0  0  0
 19 18  1  0  0  0  0
 20 15  1  0  0  0  0
 20 21  1  0  0  0  0
 22 23  2  0  0  0  0
 23 24  1  0  0  0  0
 24 25  1  0  0  0  0
 26 24  1  0  0  0  0
 27 22  1  0  0  0  0
 27 26  2  0  0  0  0
 28 31  1  0  0  0  0
 28  3  1  0  0  0  0
 29 28  1  0  0  0  0
 30 29  2  0  0  0  0
 32 29  1  0  0  0  0
 33 34  1  0  0  0  0
 33 32  1  0  0  0  0
 34 32  1  0  0  0  0
M  END
>  <minimizedAffinity>
-6.83254862

>  <CNNscore>
0.566434741

>  <CNNaffinity>
6.74018717

$$$$
